54
Molecule
C     0.000000e+00  0.000000e+00  5.523480e-01
C     3.600000e-03  7.696227e-01  1.919342e+00
C    -2.230000e-02  2.669677e-02  3.217599e+00
C    -3.280000e-02  9.516830e-01  4.410773e+00
C    -1.280000e-02  8.883948e-03  5.569006e+00
C    -2.070000e-02  8.671666e-01  6.764059e+00
C    -1.210000e-02 -9.234265e-02  7.881294e+00
C    -2.270000e-02  8.176257e-01  9.031567e+00
C    -2.420000e-02 -1.152456e-01  1.015557e+01
C    -2.120000e-02  8.172624e-01  1.128349e+01
C    -2.300000e-03 -1.233730e-01  1.239973e+01
C    -2.500000e-02  7.884383e-01  1.354208e+01
C    -2.080000e-02 -1.736893e-01  1.464875e+01
C    -2.420000e-02  7.108591e-01  1.581663e+01
C    -2.230000e-02 -2.360124e-01  1.695136e+01
C     1.160000e-02  6.674183e-01  1.812355e+01
C    -3.690000e-02 -1.868973e-01  1.934606e+01
C    -2.120000e-02  7.717495e-01  2.049971e+01
H    -8.620000e-01  1.452868e+00  1.934671e+00
H     8.588000e-01  1.463426e+00  1.952588e+00
H     8.607000e-01 -6.126247e-01  3.297779e+00
H    -9.166000e-01 -6.015667e-01  3.277803e+00
H    -9.270000e-01  1.590525e+00  4.468654e+00
H     8.423000e-01  1.616068e+00  4.461758e+00
H     8.835000e-01 -6.271746e-01  5.567559e+00
H    -8.867000e-01 -6.576902e-01  5.573342e+00
H    -9.149000e-01  1.503183e+00  6.804374e+00
H     8.616000e-01  1.519684e+00  6.803914e+00
H     8.825000e-01 -7.309815e-01  7.883703e+00
H    -8.933000e-01 -7.491428e-01  7.881454e+00
H    -9.141000e-01  1.460882e+00  9.044816e+00
H     8.630000e-01  1.468735e+00  9.050670e+00
H     8.633000e-01 -7.636552e-01  1.015704e+01
H    -9.154000e-01 -7.585533e-01  1.015865e+01
H    -9.159000e-01  1.455998e+00  1.129480e+01
H     8.625000e-01  1.471231e+00  1.128460e+01
H     9.014000e-01 -7.495313e-01  1.238939e+01
H    -8.766000e-01 -7.900189e-01  1.238734e+01
H    -9.233000e-01  1.422108e+00  1.354207e+01
H     8.540000e-01  1.448432e+00  1.355206e+01
H     8.713000e-01 -8.147039e-01  1.461895e+01
H    -9.063000e-01 -8.235820e-01  1.461786e+01
H    -9.133000e-01  1.357578e+00  1.581365e+01
H     8.607000e-01  1.363152e+00  1.581303e+01
H     8.535000e-01 -8.967666e-01  1.690768e+01
H    -9.211000e-01 -8.661079e-01  1.692673e+01
H    -8.425000e-01  1.357793e+00  1.808067e+01
H     9.244000e-01  1.278289e+00  1.808981e+01
H     8.248000e-01 -8.643932e-01  1.935894e+01
H    -9.465000e-01 -7.987497e-01  1.933368e+01
H     8.970000e-01  1.368508e+00  2.046788e+01
H    -7.760000e-02  2.280276e-01  2.143768e+01
H    -8.705000e-01  1.459793e+00  2.041849e+01
O     0.000000e+00  0.0000000000  0.000000e+00
